<?xml version="1.0" encoding="UTF-8"?>

<!-- generated on 2022-04-19 22:27:09 by Eclipse SUMO netedit Version 1.11.0
<configuration xmlns:xsi="http://www.w3.org/2001/XMLSchema-instance" xsi:noNamespaceSchemaLocation="http://sumo.dlr.de/xsd/netconvertConfiguration.xsd">

    <input>
        <sumo-net-file value="turnpike.net.xml"/>
    </input>

    <output>
        <output-file value="turnpike.net.xml"/>
    </output>

    <processing>
        <geometry.min-radius.fix.railways value="false"/>
        <geometry.max-grade.fix value="false"/>
        <offset.disable-normalization value="true"/>
        <lefthand value="false"/>
    </processing>

    <junctions>
        <no-turnarounds value="true"/>
        <junctions.corner-detail value="5"/>
        <junctions.limit-turn-speed value="5.5"/>
        <rectangular-lane-cut value="false"/>
    </junctions>

    <pedestrian>
        <walkingareas value="false"/>
    </pedestrian>

    <report>
        <aggregate-warnings value="5"/>
    </report>

</configuration>
-->

<net version="1.9" junctionCornerDetail="5" limitTurnSpeed="5.50" xmlns:xsi="http://www.w3.org/2001/XMLSchema-instance" xsi:noNamespaceSchemaLocation="http://sumo.dlr.de/xsd/net_file.xsd">

    <location netOffset="-556667.94,-4486082.57" convBoundary="0.00,1002.46,10689.73,13618.60" origBoundary="-74.330901,40.522870,-74.169279,40.645422" projParameter="+proj=utm +zone=18 +ellps=WGS84 +datum=WGS84 +units=m +no_defs"/>

    <type id="highway.bridleway" priority="1" numLanes="1" speed="2.78" allow="pedestrian" oneway="1" width="2.00"/>
    <type id="highway.bus_guideway" priority="1" numLanes="1" speed="27.78" allow="bus" oneway="1"/>
    <type id="highway.cycleway" priority="1" numLanes="1" speed="8.33" allow="bicycle" oneway="0" width="1.00"/>
    <type id="highway.footway" priority="1" numLanes="1" speed="2.78" allow="pedestrian" oneway="1" width="2.00"/>
    <type id="highway.ford" priority="1" numLanes="1" speed="2.78" allow="army" oneway="0"/>
    <type id="highway.living_street" priority="2" numLanes="1" speed="2.78" disallow="tram rail_urban rail rail_electric rail_fast ship" oneway="0"/>
    <type id="highway.motorway" priority="14" numLanes="2" speed="39.44" allow="private emergency authority army vip passenger hov taxi bus coach delivery truck trailer motorcycle evehicle custom1 custom2" oneway="1"/>
    <type id="highway.motorway_link" priority="9" numLanes="1" speed="22.22" allow="private emergency authority army vip passenger hov taxi bus coach delivery truck trailer motorcycle evehicle custom1 custom2" oneway="1"/>
    <type id="highway.path" priority="1" numLanes="1" speed="2.78" allow="pedestrian bicycle" oneway="0" width="2.00"/>
    <type id="highway.pedestrian" priority="1" numLanes="1" speed="2.78" allow="pedestrian" oneway="1" width="2.00"/>
    <type id="highway.primary" priority="12" numLanes="2" speed="27.78" disallow="tram rail_urban rail rail_electric rail_fast ship" oneway="0"/>
    <type id="highway.primary_link" priority="7" numLanes="1" speed="22.22" disallow="tram rail_urban rail rail_electric rail_fast ship" oneway="0"/>
    <type id="highway.raceway" priority="15" numLanes="2" speed="83.33" allow="vip" oneway="0"/>
    <type id="highway.residential" priority="3" numLanes="1" speed="13.89" disallow="tram rail_urban rail rail_electric rail_fast ship" oneway="0"/>
    <type id="highway.secondary" priority="11" numLanes="1" speed="27.78" disallow="tram rail_urban rail rail_electric rail_fast ship" oneway="0"/>
    <type id="highway.secondary_link" priority="6" numLanes="1" speed="22.22" disallow="tram rail_urban rail rail_electric rail_fast ship" oneway="0"/>
    <type id="highway.service" priority="1" numLanes="1" speed="5.56" allow="pedestrian delivery bicycle" oneway="0"/>
    <type id="highway.stairs" priority="1" numLanes="1" speed="1.39" allow="pedestrian" oneway="1" width="2.00"/>
    <type id="highway.step" priority="1" numLanes="1" speed="1.39" allow="pedestrian" oneway="1" width="2.00"/>
    <type id="highway.steps" priority="1" numLanes="1" speed="1.39" allow="pedestrian" oneway="1" width="2.00"/>
    <type id="highway.tertiary" priority="10" numLanes="1" speed="22.22" disallow="tram rail_urban rail rail_electric rail_fast ship" oneway="0"/>
    <type id="highway.tertiary_link" priority="5" numLanes="1" speed="22.22" disallow="tram rail_urban rail rail_electric rail_fast ship" oneway="0"/>
    <type id="highway.track" priority="1" numLanes="1" speed="5.56" allow="pedestrian motorcycle moped bicycle" oneway="0"/>
    <type id="highway.trunk" priority="13" numLanes="2" speed="27.78" disallow="pedestrian bicycle tram rail_urban rail rail_electric rail_fast ship" oneway="0"/>
    <type id="highway.trunk_link" priority="8" numLanes="1" speed="22.22" disallow="pedestrian bicycle tram rail_urban rail rail_electric rail_fast ship" oneway="0"/>
    <type id="highway.unclassified" priority="4" numLanes="1" speed="13.89" disallow="tram rail_urban rail rail_electric rail_fast ship" oneway="0"/>
    <type id="highway.unsurfaced" priority="1" numLanes="1" speed="8.33" disallow="tram rail_urban rail rail_electric rail_fast ship" oneway="0"/>
    <type id="railway.highspeed" priority="21" numLanes="1" speed="69.44" allow="rail_fast" oneway="1"/>
    <type id="railway.light_rail" priority="19" numLanes="1" speed="27.78" allow="rail_urban" oneway="1"/>
    <type id="railway.preserved" priority="16" numLanes="1" speed="27.78" allow="rail" oneway="1"/>
    <type id="railway.rail" priority="20" numLanes="1" speed="44.44" allow="rail" oneway="1"/>
    <type id="railway.subway" priority="18" numLanes="1" speed="27.78" allow="rail_urban" oneway="1"/>
    <type id="railway.tram" priority="17" numLanes="1" speed="13.89" allow="tram" oneway="1"/>

    <edge id=":1032739732_0" function="internal">
        <lane id=":1032739732_0_0" index="0" allow="private emergency authority army vip passenger hov taxi bus coach delivery truck trailer motorcycle evehicle custom1 custom2" speed="22.22" length="0.30" shape="9865.59,11719.63 9865.72,11719.90"/>
    </edge>
    <edge id=":1032752993_0" function="internal">
        <lane id=":1032752993_0_0" index="0" allow="private emergency authority army vip passenger hov taxi bus coach delivery truck trailer motorcycle evehicle custom1 custom2" speed="39.44" length="0.30" shape="9246.28,10365.80 9246.40,10366.07"/>
        <lane id=":1032752993_0_1" index="1" allow="private emergency authority army vip passenger hov taxi bus coach delivery truck trailer motorcycle evehicle custom1 custom2" speed="39.44" length="0.30" shape="9243.36,10367.12 9243.48,10367.39"/>
        <lane id=":1032752993_0_2" index="2" allow="private emergency authority army vip passenger hov taxi bus coach delivery truck trailer motorcycle evehicle custom1 custom2" speed="39.44" length="0.30" shape="9240.44,10368.43 9240.56,10368.70"/>
        <lane id=":1032752993_0_3" index="3" allow="private emergency authority army vip passenger hov taxi bus coach delivery truck trailer motorcycle evehicle custom1 custom2" speed="39.44" length="0.30" shape="9237.52,10369.74 9237.65,10370.02"/>
    </edge>
    <edge id=":1032753123_0" function="internal">
        <lane id=":1032753123_0_0" index="0" allow="private emergency authority army vip passenger hov taxi bus coach delivery truck trailer motorcycle evehicle custom1 custom2" speed="39.44" length="0.30" shape="9229.89,10387.12 9230.01,10387.39"/>
        <lane id=":1032753123_0_1" index="1" allow="private emergency authority army vip passenger hov taxi bus coach delivery truck trailer motorcycle evehicle custom1 custom2" speed="39.44" length="0.30" shape="9226.97,10388.43 9227.09,10388.71"/>
        <lane id=":1032753123_0_2" index="2" allow="private emergency authority army vip passenger hov taxi bus coach delivery truck trailer motorcycle evehicle custom1 custom2" speed="39.44" length="0.30" shape="9224.05,10389.75 9224.17,10390.02"/>
    </edge>
    <edge id=":1032753400_0" function="internal">
        <lane id=":1032753400_0_0" index="0" allow="private emergency authority army vip passenger hov taxi bus coach delivery truck trailer motorcycle evehicle custom1 custom2" speed="39.44" length="0.30" shape="9192.99,10430.67 9192.86,10430.40"/>
        <lane id=":1032753400_0_1" index="1" allow="private emergency authority army vip passenger hov taxi bus coach delivery truck trailer motorcycle evehicle custom1 custom2" speed="39.44" length="0.30" shape="9195.90,10429.35 9195.78,10429.08"/>
        <lane id=":1032753400_0_2" index="2" allow="private emergency authority army vip passenger hov taxi bus coach delivery truck trailer motorcycle evehicle custom1 custom2" speed="39.44" length="0.30" shape="9198.82,10428.04 9198.70,10427.77"/>
        <lane id=":1032753400_0_3" index="3" allow="private emergency authority army vip passenger hov taxi bus coach delivery truck trailer motorcycle evehicle custom1 custom2" speed="39.44" length="0.30" shape="9201.74,10426.73 9201.61,10426.45"/>
    </edge>
    <edge id=":1040866460_0" function="internal">
        <lane id=":1040866460_0_0" index="0" allow="private emergency authority army vip passenger hov taxi bus coach delivery truck trailer motorcycle evehicle custom1 custom2" speed="22.22" length="20.73" shape="8023.56,8254.75 8020.13,8251.61 8016.01,8247.63 8012.05,8243.50 8009.10,8239.93"/>
    </edge>
    <edge id=":1040866460_1" function="internal">
        <lane id=":1040866460_1_0" index="0" allow="private emergency authority army vip passenger hov taxi bus coach delivery truck trailer motorcycle evehicle custom1 custom2" speed="22.22" length="20.81" shape="8025.90,8252.04 8021.81,8249.74 8016.92,8246.65 8012.32,8243.22 8009.10,8239.93"/>
    </edge>
    <edge id=":1040873949_0" function="internal">
        <lane id=":1040873949_0_0" index="0" allow="private emergency authority army vip passenger hov taxi bus coach delivery truck trailer motorcycle evehicle custom1 custom2" speed="22.22" length="0.10" shape="8252.31,7951.36 8252.31,7951.36"/>
    </edge>
    <edge id=":1040875807_0" function="internal">
        <lane id=":1040875807_0_0" index="0" allow="private emergency authority army vip passenger hov taxi bus coach delivery truck trailer motorcycle evehicle custom1 custom2" speed="22.22" length="0.10" shape="8248.76,7942.51 8248.76,7942.51"/>
    </edge>
    <edge id=":1040880559_0" function="internal">
        <lane id=":1040880559_0_0" index="0" allow="private emergency authority army vip passenger hov taxi bus coach delivery truck trailer motorcycle evehicle custom1 custom2" speed="22.22" length="0.27" shape="8486.47,7789.35 8486.73,7789.19"/>
        <lane id=":1040880559_0_1" index="1" allow="private emergency authority army vip passenger hov taxi bus coach delivery truck trailer motorcycle evehicle custom1 custom2" speed="22.22" length="0.27" shape="8488.22,7792.03 8488.42,7791.91"/>
    </edge>
    <edge id=":1042355400_0" function="internal">
        <lane id=":1042355400_0_0" index="0" allow="private emergency authority army vip passenger hov taxi bus coach delivery truck trailer motorcycle evehicle custom1 custom2" speed="25.64" length="48.63" shape="5198.37,3524.31 5165.55,3488.66"/>
        <lane id=":1042355400_0_1" index="1" allow="private emergency authority army vip passenger hov taxi bus coach delivery truck trailer motorcycle evehicle custom1 custom2" speed="25.64" length="48.63" shape="5198.37,3524.31 5167.72,3486.31"/>
    </edge>
    <edge id=":1042355400_2" function="internal">
        <lane id=":1042355400_2_0" index="0" allow="private emergency authority army vip passenger hov taxi bus coach delivery truck trailer motorcycle evehicle custom1 custom2" speed="29.06" length="48.48" shape="5200.83,3521.89 5165.55,3488.66"/>
        <lane id=":1042355400_2_1" index="1" allow="private emergency authority army vip passenger hov taxi bus coach delivery truck trailer motorcycle evehicle custom1 custom2" speed="29.06" length="48.48" shape="5203.01,3519.54 5167.72,3486.31"/>
        <lane id=":1042355400_2_2" index="2" allow="private emergency authority army vip passenger hov taxi bus coach delivery truck trailer motorcycle evehicle custom1 custom2" speed="29.06" length="48.48" shape="5205.19,3517.20 5169.90,3483.96"/>
        <lane id=":1042355400_2_3" index="3" allow="private emergency authority army vip passenger hov taxi bus coach delivery truck trailer motorcycle evehicle custom1 custom2" speed="29.06" length="48.48" shape="5207.36,3514.85 5172.07,3481.61"/>
    </edge>
    <edge id=":1042356358_0" function="internal">
        <lane id=":1042356358_0_0" index="0" allow="private emergency authority army vip passenger hov taxi bus coach delivery truck trailer motorcycle evehicle custom1 custom2" speed="34.25" length="0.30" shape="5320.97,3641.06 5320.79,3640.87"/>
        <lane id=":1042356358_0_1" index="1" allow="private emergency authority army vip passenger hov taxi bus coach delivery truck trailer motorcycle evehicle custom1 custom2" speed="34.25" length="0.30" shape="5323.27,3638.84 5323.07,3638.63"/>
        <lane id=":1042356358_0_2" index="2" allow="private emergency authority army vip passenger hov taxi bus coach delivery truck trailer motorcycle evehicle custom1 custom2" speed="34.25" length="0.30" shape="5325.57,3636.62 5325.36,3636.39"/>
        <lane id=":1042356358_0_3" index="3" allow="private emergency authority army vip passenger hov taxi bus coach delivery truck trailer motorcycle evehicle custom1 custom2" speed="34.25" length="0.30" shape="5327.88,3634.39 5327.65,3634.16"/>
    </edge>
    <edge id=":1042426389_0" function="internal">
        <lane id=":1042426389_0_0" index="0" allow="private emergency authority army vip passenger hov taxi bus coach delivery truck trailer motorcycle evehicle custom1 custom2" speed="22.22" length="0.30" shape="5317.85,3650.45 5317.65,3650.23"/>
    </edge>
    <edge id=":1042426391_0" function="internal">
        <lane id=":1042426391_0_0" index="0" allow="private emergency authority army vip passenger hov taxi bus coach delivery truck trailer motorcycle evehicle custom1 custom2" speed="22.22" length="0.30" shape="5306.14,3637.69 5305.94,3637.47"/>
    </edge>
    <edge id=":1042426788_0" function="internal">
        <lane id=":1042426788_0_0" index="0" allow="private emergency authority army vip passenger hov taxi bus coach delivery truck trailer motorcycle evehicle custom1 custom2" speed="22.22" length="0.22" shape="5428.00,3774.66 5427.97,3774.44"/>
    </edge>
    <edge id=":1042426797_0" function="internal">
        <lane id=":1042426797_0_0" index="0" allow="private emergency authority army vip passenger hov taxi bus coach delivery truck trailer motorcycle evehicle custom1 custom2" speed="22.22" length="0.10" shape="5389.58,3668.81 5389.58,3668.81"/>
    </edge>
    <edge id=":1042426798_0" function="internal">
        <lane id=":1042426798_0_0" index="0" allow="private emergency authority army vip passenger hov taxi bus coach delivery truck trailer motorcycle evehicle custom1 custom2" speed="22.22" length="0.30" shape="5334.60,3618.49 5334.38,3618.29"/>
    </edge>
    <edge id=":1042426800_0" function="internal">
        <lane id=":1042426800_0_0" index="0" allow="private emergency authority army vip passenger hov taxi bus coach delivery truck trailer motorcycle evehicle custom1 custom2" speed="22.22" length="0.10" shape="5320.93,3605.74 5320.93,3605.74"/>
    </edge>
    <edge id=":1042427449_0" function="internal">
        <lane id=":1042427449_0_0" index="0" allow="private emergency authority army vip passenger hov taxi bus coach delivery truck trailer motorcycle evehicle custom1 custom2" speed="29.06" length="0.26" shape="5874.71,4270.40 5874.55,4270.18"/>
    </edge>
    <edge id=":1042427455_0" function="internal">
        <lane id=":1042427455_0_0" index="0" allow="private emergency authority army vip passenger hov taxi bus coach delivery truck trailer motorcycle evehicle custom1 custom2" speed="29.06" length="0.25" shape="5767.42,4206.78 5767.35,4206.75 5767.30,4206.73 5767.26,4206.70 5767.19,4206.67"/>
    </edge>
    <edge id=":1042427877_0" function="internal">
        <lane id=":1042427877_0_0" index="0" allow="private emergency authority army vip passenger hov taxi bus coach delivery truck trailer motorcycle evehicle custom1 custom2" speed="34.25" length="20.87" shape="6061.86,4522.41 6048.47,4506.40"/>
    </edge>
    <edge id=":1042427877_1" function="internal">
        <lane id=":1042427877_1_0" index="0" allow="private emergency authority army vip passenger hov taxi bus coach delivery truck trailer motorcycle evehicle custom1 custom2" speed="39.44" length="21.03" shape="6064.47,4520.57 6051.09,4504.35"/>
        <lane id=":1042427877_1_1" index="1" allow="private emergency authority army vip passenger hov taxi bus coach delivery truck trailer motorcycle evehicle custom1 custom2" speed="39.44" length="21.03" shape="6067.09,4518.73 6053.71,4502.50"/>
        <lane id=":1042427877_1_2" index="2" allow="private emergency authority army vip passenger hov taxi bus coach delivery truck trailer motorcycle evehicle custom1 custom2" speed="39.44" length="21.03" shape="6069.70,4516.89 6056.32,4500.66"/>
    </edge>
    <edge id=":1042428686_0" function="internal">
        <lane id=":1042428686_0_0" index="0" allow="private emergency authority army vip passenger hov taxi bus coach delivery truck trailer motorcycle evehicle custom1 custom2" speed="15.92" length="11.34" shape="5672.15,4065.11 5669.93,4062.94 5667.76,4061.83 5665.30,4061.10 5662.24,4060.07"/>
    </edge>
    <edge id=":1042428686_1" function="internal">
        <lane id=":1042428686_1_0" index="0" allow="private emergency authority army vip passenger hov taxi bus coach delivery truck trailer motorcycle evehicle custom1 custom2" speed="29.06" length="11.32" shape="5672.15,4065.11 5670.10,4062.68 5668.38,4060.89 5666.58,4059.18 5664.30,4056.96"/>
    </edge>
    <edge id=":1042434177_0" function="internal">
        <lane id=":1042434177_0_0" index="0" allow="private emergency authority army vip passenger hov taxi bus coach delivery truck trailer motorcycle evehicle custom1 custom2" speed="22.22" length="21.30" shape="5602.88,3741.88 5605.82,3745.61 5609.85,3749.97 5614.16,3754.02 5617.96,3756.80"/>
    </edge>
    <edge id=":1042434177_1" function="internal">
        <lane id=":1042434177_1_0" index="0" allow="private emergency authority army vip passenger hov taxi bus coach delivery truck trailer motorcycle evehicle custom1 custom2" speed="22.22" length="21.24" shape="5602.88,3741.88 5614.96,3759.36"/>
    </edge>
    <edge id=":1042435155_0" function="internal">
        <lane id=":1042435155_0_0" index="0" allow="private emergency authority army vip passenger hov taxi bus coach delivery truck trailer motorcycle evehicle custom1 custom2" speed="25.64" length="23.31" shape="5062.19,3318.93 5081.22,3332.38"/>
    </edge>
    <edge id=":1042435155_1" function="internal">
        <lane id=":1042435155_1_0" index="0" allow="private emergency authority army vip passenger hov taxi bus coach delivery truck trailer motorcycle evehicle custom1 custom2" speed="29.06" length="23.42" shape="5060.16,3321.41 5079.22,3335.02"/>
        <lane id=":1042435155_1_1" index="1" allow="private emergency authority army vip passenger hov taxi bus coach delivery truck trailer motorcycle evehicle custom1 custom2" speed="29.06" length="23.42" shape="5058.13,3323.88 5077.19,3337.50"/>
        <lane id=":1042435155_1_2" index="2" allow="private emergency authority army vip passenger hov taxi bus coach delivery truck trailer motorcycle evehicle custom1 custom2" speed="29.06" length="23.42" shape="5056.11,3326.36 5075.16,3339.97"/>
    </edge>
    <edge id=":1042435178_0" function="internal">
        <lane id=":1042435178_0_0" index="0" allow="private emergency authority army vip passenger hov taxi bus coach delivery truck trailer motorcycle evehicle custom1 custom2" speed="22.22" length="0.29" shape="5347.26,3556.15 5347.48,3556.35"/>
    </edge>
    <edge id=":1042435195_0" function="internal">
        <lane id=":1042435195_0_0" index="0" allow="private emergency authority army vip passenger hov taxi bus coach delivery truck trailer motorcycle evehicle custom1 custom2" speed="22.22" length="0.28" shape="5460.86,3601.29 5461.14,3601.34"/>
    </edge>
    <edge id=":1042435614_0" function="internal">
        <lane id=":1042435614_0_0" index="0" allow="private emergency authority army vip passenger hov taxi bus coach delivery truck trailer motorcycle evehicle custom1 custom2" speed="22.22" length="0.24" shape="5377.74,3540.42 5377.93,3540.56"/>
    </edge>
    <edge id=":1042437387_0" function="internal">
        <lane id=":1042437387_0_0" index="0" allow="private emergency authority army vip passenger hov taxi bus coach delivery truck trailer motorcycle evehicle custom1 custom2" speed="29.06" length="0.21" shape="5846.32,4071.11 5846.32,4071.33"/>
    </edge>
    <edge id=":1042437399_0" function="internal">
        <lane id=":1042437399_0_0" index="0" allow="private emergency authority army vip passenger hov taxi bus coach delivery truck trailer motorcycle evehicle custom1 custom2" speed="29.06" length="0.10" shape="5867.24,4176.58 5867.24,4176.58"/>
    </edge>
    <edge id=":1042459457_0" function="internal">
        <lane id=":1042459457_0_0" index="0" allow="private emergency authority army vip passenger hov taxi bus coach delivery truck trailer motorcycle evehicle custom1 custom2" speed="22.22" length="0.10" shape="10199.82,12686.11 10199.82,12686.11"/>
    </edge>
    <edge id=":104407567_0" function="internal">
        <lane id=":104407567_0_0" index="0" allow="private emergency authority army vip passenger hov taxi bus coach delivery truck trailer motorcycle evehicle custom1 custom2" speed="34.25" length="0.26" shape="5327.19,3592.75 5326.88,3592.44"/>
        <lane id=":104407567_0_1" index="1" allow="private emergency authority army vip passenger hov taxi bus coach delivery truck trailer motorcycle evehicle custom1 custom2" speed="34.25" length="0.26" shape="5329.41,3590.45 5329.23,3590.26"/>
        <lane id=":104407567_0_2" index="2" allow="private emergency authority army vip passenger hov taxi bus coach delivery truck trailer motorcycle evehicle custom1 custom2" speed="34.25" length="0.26" shape="5331.64,3588.15 5331.58,3588.09"/>
    </edge>
    <edge id=":105435202_0" function="internal">
        <lane id=":105435202_0_0" index="0" allow="private emergency authority army vip passenger hov taxi bus coach delivery truck trailer motorcycle evehicle custom1 custom2" speed="39.44" length="0.30" shape="9814.34,11739.82 9814.21,11739.54"/>
        <lane id=":105435202_0_1" index="1" allow="private emergency authority army vip passenger hov taxi bus coach delivery truck trailer motorcycle evehicle custom1 custom2" speed="39.44" length="0.30" shape="9817.23,11738.45 9817.11,11738.17"/>
        <lane id=":105435202_0_2" index="2" allow="private emergency authority army vip passenger hov taxi bus coach delivery truck trailer motorcycle evehicle custom1 custom2" speed="39.44" length="0.30" shape="9820.13,11737.08 9820.00,11736.81"/>
    </edge>
    <edge id=":105435207_0" function="internal">
        <lane id=":105435207_0_0" index="0" allow="private emergency authority army vip passenger hov taxi bus coach delivery truck trailer motorcycle evehicle custom1 custom2" speed="39.44" length="0.30" shape="9210.39,10408.89 9210.27,10408.62"/>
        <lane id=":105435207_0_1" index="1" allow="private emergency authority army vip passenger hov taxi bus coach delivery truck trailer motorcycle evehicle custom1 custom2" speed="39.44" length="0.30" shape="9213.31,10407.58 9213.19,10407.30"/>
        <lane id=":105435207_0_2" index="2" allow="private emergency authority army vip passenger hov taxi bus coach delivery truck trailer motorcycle evehicle custom1 custom2" speed="39.44" length="0.30" shape="9216.23,10406.26 9216.11,10405.99"/>
    </edge>
    <edge id=":1365154703_0" function="internal">
        <lane id=":1365154703_0_0" index="0" allow="private emergency authority army vip passenger hov taxi bus coach delivery truck trailer motorcycle evehicle custom1 custom2" speed="29.06" length="8.21" shape="3808.89,2502.84 3806.82,2501.61 3805.59,2500.44 3804.37,2499.27 3802.30,2498.04"/>
        <lane id=":1365154703_0_1" index="1" allow="private emergency authority army vip passenger hov taxi bus coach delivery truck trailer motorcycle evehicle custom1 custom2" speed="29.06" length="8.21" shape="3810.23,2499.94 3807.95,2499.16 3806.26,2498.99 3804.58,2498.82 3802.30,2498.04"/>
        <lane id=":1365154703_0_2" index="2" allow="private emergency authority army vip passenger hov taxi bus coach delivery truck trailer motorcycle evehicle custom1 custom2" speed="29.06" length="8.21" shape="3811.57,2497.03 3809.29,2496.26 3807.61,2496.08 3805.92,2495.91 3803.64,2495.13"/>
        <lane id=":1365154703_0_3" index="3" allow="private emergency authority army vip passenger hov taxi bus coach delivery truck trailer motorcycle evehicle custom1 custom2" speed="29.06" length="8.21" shape="3812.91,2494.13 3810.63,2493.35 3808.95,2493.18 3807.26,2493.01 3804.98,2492.23"/>
    </edge>
    <edge id=":1365154704_0" function="internal">
        <lane id=":1365154704_0_0" index="0" allow="private emergency authority army vip passenger hov taxi bus coach delivery truck trailer motorcycle evehicle custom1 custom2" speed="29.06" length="8.21" shape="4391.98,2751.20 4394.05,2752.42 4395.67,2752.93 4397.28,2753.45 4399.36,2754.67"/>
        <lane id=":1365154704_0_1" index="1" allow="private emergency authority army vip passenger hov taxi bus coach delivery truck trailer motorcycle evehicle custom1 custom2" speed="29.06" length="8.21" shape="4391.98,2751.20 4393.76,2752.83 4394.72,2754.22 4395.68,2755.62 4397.46,2757.24"/>
        <lane id=":1365154704_0_2" index="2" allow="private emergency authority army vip passenger hov taxi bus coach delivery truck trailer motorcycle evehicle custom1 custom2" speed="29.06" length="8.21" shape="4390.07,2753.77 4391.85,2755.40 4392.81,2756.79 4393.78,2758.19 4395.55,2759.82"/>
        <lane id=":1365154704_0_3" index="3" allow="private emergency authority army vip passenger hov taxi bus coach delivery truck trailer motorcycle evehicle custom1 custom2" speed="29.06" length="8.21" shape="4388.17,2756.34 4389.95,2757.97 4390.91,2759.37 4391.87,2760.76 4393.65,2762.39"/>
    </edge>
    <edge id=":1365154706_0" function="internal">
        <lane id=":1365154706_0_0" index="0" allow="private emergency authority army vip passenger hov taxi bus coach delivery truck trailer motorcycle evehicle custom1 custom2" speed="39.44" length="8.21" shape="9722.39,11430.76 9723.59,11432.85 9724.74,11434.09 9725.90,11435.33 9727.10,11437.42"/>
        <lane id=":1365154706_0_1" index="1" allow="private emergency authority army vip passenger hov taxi bus coach delivery truck trailer motorcycle evehicle custom1 custom2" speed="39.44" length="8.21" shape="9719.46,11432.06 9720.66,11434.14 9721.82,11435.39 9722.97,11436.63 9724.17,11438.72"/>
        <lane id=":1365154706_0_2" index="2" allow="private emergency authority army vip passenger hov taxi bus coach delivery truck trailer motorcycle evehicle custom1 custom2" speed="39.44" length="8.21" shape="9716.54,11433.36 9717.74,11435.44 9718.89,11436.68 9720.05,11437.92 9721.24,11440.01"/>
    </edge>
    <edge id=":1387832617_0" function="internal">
        <lane id=":1387832617_0_0" index="0" allow="private emergency authority army vip passenger hov taxi bus coach delivery truck trailer motorcycle evehicle custom1 custom2" speed="29.06" length="8.63" shape="4257.95,2749.54 4255.68,2748.59 4253.83,2748.66 4251.96,2748.74 4249.67,2747.83"/>
        <lane id=":1387832617_0_1" index="1" allow="private emergency authority army vip passenger hov taxi bus coach delivery truck trailer motorcycle evehicle custom1 custom2" speed="29.06" length="8.63" shape="4257.95,2749.54 4251.42,2745.16"/>
        <lane id=":1387832617_0_2" index="2" allow="private emergency authority army vip passenger hov taxi bus coach delivery truck trailer motorcycle evehicle custom1 custom2" speed="29.06" length="8.63" shape="4257.95,2749.54 4256.22,2747.75 4255.58,2745.98 4254.93,2744.23 4253.18,2742.48"/>
        <lane id=":1387832617_0_3" index="3" allow="private emergency authority army vip passenger hov taxi bus coach delivery truck trailer motorcycle evehicle custom1 custom2" speed="29.06" length="8.63" shape="4259.76,2746.91 4258.02,2745.10 4257.37,2743.33 4256.71,2741.57 4254.93,2739.81"/>
        <lane id=":1387832617_0_4" index="4" allow="private emergency authority army vip passenger hov taxi bus coach delivery truck trailer motorcycle evehicle custom1 custom2" speed="29.06" length="8.63" shape="4261.58,2744.28 4259.82,2742.46 4259.16,2740.67 4258.48,2738.90 4256.69,2737.13"/>
        <lane id=":1387832617_0_5" index="5" allow="private emergency authority army vip passenger hov taxi bus coach delivery truck trailer motorcycle evehicle custom1 custom2" speed="29.06" length="8.63" shape="4263.40,2741.64 4261.62,2739.81 4260.94,2738.02 4260.25,2736.24 4258.44,2734.45"/>
    </edge>
    <edge id=":1782462069_0" function="internal">
        <lane id=":1782462069_0_0" index="0" allow="private emergency authority army vip passenger hov taxi bus coach delivery truck trailer motorcycle evehicle custom1 custom2" speed="22.22" length="8.21" shape="10263.41,13070.77 10265.28,13069.24 10266.32,13067.90 10267.36,13066.57 10269.23,13065.05"/>