<?xml version="1.0" encoding="UTF-8"?>

<!-- generated on 2022-04-24 21:09:00 by Eclipse SUMO netedit Version 1.11.0
<configuration xmlns:xsi="http://www.w3.org/2001/XMLSchema-instance" xsi:noNamespaceSchemaLocation="http://sumo.dlr.de/xsd/netconvertConfiguration.xsd">

    <input>
        <sumo-net-file value="turnpike.single.net.xml"/>
    </input>

    <output>
        <output-file value="turnpike.single.net.xml"/>
    </output>

    <processing>
        <geometry.min-radius.fix.railways value="false"/>
        <geometry.max-grade.fix value="false"/>
        <offset.disable-normalization value="true"/>
        <lefthand value="false"/>
    </processing>

    <junctions>
        <no-turnarounds value="true"/>
        <junctions.corner-detail value="5"/>
        <junctions.limit-turn-speed value="5.5"/>
        <rectangular-lane-cut value="false"/>
    </junctions>

    <pedestrian>
        <walkingareas value="false"/>
    </pedestrian>

    <report>
        <aggregate-warnings value="5"/>
    </report>

</configuration>
-->

<net version="1.9" junctionCornerDetail="5" limitTurnSpeed="5.50" xmlns:xsi="http://www.w3.org/2001/XMLSchema-instance" xsi:noNamespaceSchemaLocation="http://sumo.dlr.de/xsd/net_file.xsd">

    <location netOffset="-556667.94,-4486082.57" convBoundary="6451.15,5089.67,9236.34,10417.65" origBoundary="-74.330901,40.522870,-74.169279,40.645422" projParameter="+proj=utm +zone=18 +ellps=WGS84 +datum=WGS84 +units=m +no_defs"/>

    <type id="highway.bridleway" priority="1" numLanes="1" speed="2.78" allow="pedestrian" oneway="1" width="2.00"/>
    <type id="highway.bus_guideway" priority="1" numLanes="1" speed="27.78" allow="bus" oneway="1"/>
    <type id="highway.cycleway" priority="1" numLanes="1" speed="8.33" allow="bicycle" oneway="0" width="1.00"/>
    <type id="highway.footway" priority="1" numLanes="1" speed="2.78" allow="pedestrian" oneway="1" width="2.00"/>
    <type id="highway.ford" priority="1" numLanes="1" speed="2.78" allow="army" oneway="0"/>
    <type id="highway.living_street" priority="2" numLanes="1" speed="2.78" disallow="tram rail_urban rail rail_electric rail_fast ship" oneway="0"/>
    <type id="highway.motorway" priority="14" numLanes="2" speed="39.44" allow="private emergency authority army vip passenger hov taxi bus coach delivery truck trailer motorcycle evehicle custom1 custom2" oneway="1"/>
    <type id="highway.motorway_link" priority="9" numLanes="1" speed="22.22" allow="private emergency authority army vip passenger hov taxi bus coach delivery truck trailer motorcycle evehicle custom1 custom2" oneway="1"/>
    <type id="highway.path" priority="1" numLanes="1" speed="2.78" allow="pedestrian bicycle" oneway="0" width="2.00"/>
    <type id="highway.pedestrian" priority="1" numLanes="1" speed="2.78" allow="pedestrian" oneway="1" width="2.00"/>
    <type id="highway.primary" priority="12" numLanes="2" speed="27.78" disallow="tram rail_urban rail rail_electric rail_fast ship" oneway="0"/>
    <type id="highway.primary_link" priority="7" numLanes="1" speed="22.22" disallow="tram rail_urban rail rail_electric rail_fast ship" oneway="0"/>
    <type id="highway.raceway" priority="15" numLanes="2" speed="83.33" allow="vip" oneway="0"/>
    <type id="highway.residential" priority="3" numLanes="1" speed="13.89" disallow="tram rail_urban rail rail_electric rail_fast ship" oneway="0"/>
    <type id="highway.secondary" priority="11" numLanes="1" speed="27.78" disallow="tram rail_urban rail rail_electric rail_fast ship" oneway="0"/>
    <type id="highway.secondary_link" priority="6" numLanes="1" speed="22.22" disallow="tram rail_urban rail rail_electric rail_fast ship" oneway="0"/>
    <type id="highway.service" priority="1" numLanes="1" speed="5.56" allow="pedestrian delivery bicycle" oneway="0"/>
    <type id="highway.stairs" priority="1" numLanes="1" speed="1.39" allow="pedestrian" oneway="1" width="2.00"/>
    <type id="highway.step" priority="1" numLanes="1" speed="1.39" allow="pedestrian" oneway="1" width="2.00"/>
    <type id="highway.steps" priority="1" numLanes="1" speed="1.39" allow="pedestrian" oneway="1" width="2.00"/>
    <type id="highway.tertiary" priority="10" numLanes="1" speed="22.22" disallow="tram rail_urban rail rail_electric rail_fast ship" oneway="0"/>
    <type id="highway.tertiary_link" priority="5" numLanes="1" speed="22.22" disallow="tram rail_urban rail rail_electric rail_fast ship" oneway="0"/>
    <type id="highway.track" priority="1" numLanes="1" speed="5.56" allow="pedestrian motorcycle moped bicycle" oneway="0"/>
    <type id="highway.trunk" priority="13" numLanes="2" speed="27.78" disallow="pedestrian bicycle tram rail_urban rail rail_electric rail_fast ship" oneway="0"/>
    <type id="highway.trunk_link" priority="8" numLanes="1" speed="22.22" disallow="pedestrian bicycle tram rail_urban rail rail_electric rail_fast ship" oneway="0"/>
    <type id="highway.unclassified" priority="4" numLanes="1" speed="13.89" disallow="tram rail_urban rail rail_electric rail_fast ship" oneway="0"/>
    <type id="highway.unsurfaced" priority="1" numLanes="1" speed="8.33" disallow="tram rail_urban rail rail_electric rail_fast ship" oneway="0"/>
    <type id="railway.highspeed" priority="21" numLanes="1" speed="69.44" allow="rail_fast" oneway="1"/>
    <type id="railway.light_rail" priority="19" numLanes="1" speed="27.78" allow="rail_urban" oneway="1"/>
    <type id="railway.preserved" priority="16" numLanes="1" speed="27.78" allow="rail" oneway="1"/>
    <type id="railway.rail" priority="20" numLanes="1" speed="44.44" allow="rail" oneway="1"/>
    <type id="railway.subway" priority="18" numLanes="1" speed="27.78" allow="rail_urban" oneway="1"/>
    <type id="railway.tram" priority="17" numLanes="1" speed="13.89" allow="tram" oneway="1"/>

    <edge id=":1040866460_0" function="internal">
        <lane id=":1040866460_0_0" index="0" allow="private emergency authority army vip passenger hov taxi bus coach delivery truck trailer motorcycle evehicle custom1 custom2" speed="22.22" length="20.73" shape="8023.56,8254.75 8020.13,8251.61 8016.01,8247.63 8012.05,8243.50 8009.10,8239.93"/>
    </edge>
    <edge id=":1040866460_1" function="internal">
        <lane id=":1040866460_1_0" index="0" allow="private emergency authority army vip passenger hov taxi bus coach delivery truck trailer motorcycle evehicle custom1 custom2" speed="22.22" length="20.81" shape="8025.90,8252.04 8021.81,8249.74 8016.92,8246.65 8012.32,8243.22 8009.10,8239.93"/>
    </edge>
    <edge id=":1040873949_0" function="internal">
        <lane id=":1040873949_0_0" index="0" allow="private emergency authority army vip passenger hov taxi bus coach delivery truck trailer motorcycle evehicle custom1 custom2" speed="22.22" length="0.10" shape="8252.31,7951.36 8252.31,7951.36"/>
    </edge>
    <edge id=":1040875807_0" function="internal">
        <lane id=":1040875807_0_0" index="0" allow="private emergency authority army vip passenger hov taxi bus coach delivery truck trailer motorcycle evehicle custom1 custom2" speed="22.22" length="0.10" shape="8248.76,7942.51 8248.76,7942.51"/>
    </edge>
    <edge id=":1040880559_0" function="internal">
        <lane id=":1040880559_0_0" index="0" allow="private emergency authority army vip passenger hov taxi bus coach delivery truck trailer motorcycle evehicle custom1 custom2" speed="22.22" length="0.27" shape="8486.47,7789.35 8486.73,7789.19"/>
        <lane id=":1040880559_0_1" index="1" allow="private emergency authority army vip passenger hov taxi bus coach delivery truck trailer motorcycle evehicle custom1 custom2" speed="22.22" length="0.27" shape="8488.22,7792.03 8488.42,7791.91"/>
    </edge>
    <edge id=":254158441_0" function="internal">
        <lane id=":254158441_0_0" index="0" allow="private emergency authority army vip passenger hov taxi bus coach delivery truck trailer motorcycle evehicle custom1 custom2" speed="39.44" length="0.37" shape="8159.80,8289.03 8159.59,8288.59"/>
        <lane id=":254158441_0_1" index="1" allow="private emergency authority army vip passenger hov taxi bus coach delivery truck trailer motorcycle evehicle custom1 custom2" speed="39.44" length="0.37" shape="8162.69,8287.65 8162.51,8287.28"/>
        <lane id=":254158441_0_2" index="2" allow="private emergency authority army vip passenger hov taxi bus coach delivery truck trailer motorcycle evehicle custom1 custom2" speed="39.44" length="0.37" shape="8165.57,8286.27 8165.43,8285.97"/>
        <lane id=":254158441_0_3" index="3" allow="private emergency authority army vip passenger hov taxi bus coach delivery truck trailer motorcycle evehicle custom1 custom2" speed="39.44" length="0.37" shape="8168.46,8284.88 8168.35,8284.66"/>
    </edge>
    <edge id=":254158442_0" function="internal">
        <lane id=":254158442_0_0" index="0" allow="private emergency authority army vip passenger hov taxi bus coach delivery truck trailer motorcycle evehicle custom1 custom2" speed="34.25" length="0.59" shape="8127.73,8217.52 8127.42,8216.79"/>
        <lane id=":254158442_0_1" index="1" allow="private emergency authority army vip passenger hov taxi bus coach delivery truck trailer motorcycle evehicle custom1 custom2" speed="34.25" length="0.59" shape="8130.65,8216.21 8130.39,8215.61"/>
        <lane id=":254158442_0_2" index="2" allow="private emergency authority army vip passenger hov taxi bus coach delivery truck trailer motorcycle evehicle custom1 custom2" speed="34.25" length="0.59" shape="8133.57,8214.90 8133.37,8214.42"/>
        <lane id=":254158442_0_3" index="3" allow="private emergency authority army vip passenger hov taxi bus coach delivery truck trailer motorcycle evehicle custom1 custom2" speed="34.25" length="0.59" shape="8136.49,8213.60 8136.34,8213.24"/>
    </edge>
    <edge id=":254159015_0" function="internal">
        <lane id=":254159015_0_0" index="0" allow="private emergency authority army vip passenger hov taxi bus coach delivery truck trailer motorcycle evehicle custom1 custom2" speed="30.83" length="26.28" shape="7962.70,7634.74 7975.04,7657.94"/>
    </edge>
    <edge id=":254159015_1" function="internal">
        <lane id=":254159015_1_0" index="0" allow="private emergency authority army vip passenger hov taxi bus coach delivery truck trailer motorcycle evehicle custom1 custom2" speed="39.44" length="26.39" shape="7959.78,7636.05 7972.07,7659.40"/>
        <lane id=":254159015_1_1" index="1" allow="private emergency authority army vip passenger hov taxi bus coach delivery truck trailer motorcycle evehicle custom1 custom2" speed="39.44" length="26.39" shape="7956.86,7637.36 7969.16,7660.71"/>
        <lane id=":254159015_1_2" index="2" allow="private emergency authority army vip passenger hov taxi bus coach delivery truck trailer motorcycle evehicle custom1 custom2" speed="39.44" length="26.39" shape="7953.94,7638.67 7966.24,7662.02"/>
    </edge>
    <edge id=":288985342_0" function="internal">
        <lane id=":288985342_0_0" index="0" allow="private emergency authority army vip passenger hov taxi bus coach delivery truck trailer motorcycle evehicle custom1 custom2" speed="22.22" length="26.77" shape="7997.56,8141.04 7996.90,8146.55 7996.77,8154.35 7996.96,8162.17 7997.27,8167.77"/>
    </edge>
    <edge id=":288985342_1" function="internal">
        <lane id=":288985342_1_0" index="0" allow="private emergency authority army vip passenger hov taxi bus coach delivery truck trailer motorcycle evehicle custom1 custom2" speed="22.22" length="26.68" shape="7997.56,8141.04 7996.48,8146.51 7995.35,8154.19 7994.39,8161.90 7993.84,8167.45"/>
    </edge>
    <edge id=":288985393_0" function="internal">
        <lane id=":288985393_0_0" index="0" allow="private emergency authority army vip passenger hov taxi bus coach delivery truck trailer motorcycle evehicle custom1 custom2" speed="22.22" length="0.10" shape="8039.32,8067.31 8039.32,8067.31"/>
    </edge>
    <edge id=":288985416_0" function="internal">
        <lane id=":288985416_0_0" index="0" allow="private emergency authority army vip passenger hov taxi bus coach delivery truck trailer motorcycle evehicle custom1 custom2" speed="22.22" length="0.27" shape="8157.30,7904.08 8157.35,7904.14 8157.39,7904.18 8157.43,7904.21 8157.49,7904.26"/>
    </edge>
    <edge id=":288985420_0" function="internal">
        <lane id=":288985420_0_0" index="0" allow="private emergency authority army vip passenger hov taxi bus coach delivery truck trailer motorcycle evehicle custom1 custom2" speed="22.22" length="0.23" shape="8244.02,7926.21 8244.09,7926.20 8244.14,7926.20 8244.19,7926.19 8244.25,7926.17"/>
    </edge>
    <edge id=":288985421_0" function="internal">
        <lane id=":288985421_0_0" index="0" allow="private emergency authority army vip passenger hov taxi bus coach delivery truck trailer motorcycle evehicle custom1 custom2" speed="22.22" length="13.64" shape="8314.53,7904.82 8317.14,7902.85 8319.11,7900.75 8321.35,7898.45 8324.75,7895.83"/>
    </edge>
    <edge id=":288985421_1" function="internal">
        <lane id=":288985421_1_0" index="0" allow="private emergency authority army vip passenger hov taxi bus coach delivery truck trailer motorcycle evehicle custom1 custom2" speed="22.22" length="13.33" shape="8316.77,7907.56 8319.02,7905.18 8320.89,7903.09 8323.14,7900.97 8326.50,7898.51"/>
    </edge>
    <edge id=":288985445_0" function="internal">
        <lane id=":288985445_0_0" index="0" allow="private emergency authority army vip passenger hov taxi bus coach delivery truck trailer motorcycle evehicle custom1 custom2" speed="22.22" length="0.10" shape="8112.83,7913.52 8112.83,7913.52"/>
    </edge>
    <edge id=":288985468_0" function="internal">
        <lane id=":288985468_0_0" index="0" allow="private emergency authority army vip passenger hov taxi bus coach delivery truck trailer motorcycle evehicle custom1 custom2" speed="22.22" length="27.26" shape="8300.20,7941.80 8295.67,7945.21 8289.37,7950.09 8283.13,7955.04 8278.78,7958.66"/>
    </edge>
    <edge id=":288985468_1" function="internal">
        <lane id=":288985468_1_0" index="0" allow="private emergency authority army vip passenger hov taxi bus coach delivery truck trailer motorcycle evehicle custom1 custom2" speed="22.22" length="27.23" shape="8300.20,7941.80 8295.44,7944.87 8288.61,7948.94 8281.72,7952.93 8276.82,7955.77"/>
    </edge>
    <edge id=":288985469_0" function="internal">
        <lane id=":288985469_0_0" index="0" allow="private emergency authority army vip passenger hov taxi bus coach delivery truck trailer motorcycle evehicle custom1 custom2" speed="22.22" length="0.25" shape="8260.01,7966.05 8259.79,7966.19"/>
    </edge>
    <edge id=":288985472_0" function="internal">
        <lane id=":288985472_0_0" index="0" allow="private emergency authority army vip passenger hov taxi bus coach delivery truck trailer motorcycle evehicle custom1 custom2" speed="22.22" length="0.27" shape="8202.85,8098.23 8202.97,8098.47"/>
    </edge>
    <edge id=":288985476_0" function="internal">
        <lane id=":288985476_0_0" index="0" allow="private emergency authority army vip passenger hov taxi bus coach delivery truck trailer motorcycle evehicle custom1 custom2" speed="39.44" length="0.29" shape="8385.09,8513.13 8385.20,8513.37"/>
        <lane id=":288985476_0_1" index="1" allow="private emergency authority army vip passenger hov taxi bus coach delivery truck trailer motorcycle evehicle custom1 custom2" speed="39.44" length="0.29" shape="8382.16,8514.42 8382.28,8514.68"/>
        <lane id=":288985476_0_2" index="2" allow="private emergency authority army vip passenger hov taxi bus coach delivery truck trailer motorcycle evehicle custom1 custom2" speed="39.44" length="0.29" shape="8379.23,8515.70 8379.36,8516.00"/>
    </edge>
    <edge id=":288985489_0" function="internal">
        <lane id=":288985489_0_0" index="0" allow="private emergency authority army vip passenger hov taxi bus coach delivery truck trailer motorcycle evehicle custom1 custom2" speed="22.22" length="0.26" shape="8245.94,8103.80 8246.05,8104.04"/>
    </edge>
    <edge id=":288985492_0" function="internal">
        <lane id=":288985492_0_0" index="0" allow="private emergency authority army vip passenger hov taxi bus coach delivery truck trailer motorcycle evehicle custom1 custom2" speed="22.22" length="0.10" shape="8265.07,7971.82 8265.07,7971.82"/>
    </edge>
    <edge id=":288985493_0" function="internal">
        <lane id=":288985493_0_0" index="0" allow="private emergency authority army vip passenger hov taxi bus coach delivery truck trailer motorcycle evehicle custom1 custom2" speed="22.22" length="9.61" shape="8330.59,7918.84 8328.22,7920.44 8326.59,7921.51 8325.00,7922.65 8322.79,7924.45"/>
    </edge>
    <edge id=":288985493_1" function="internal">
        <lane id=":288985493_1_0" index="0" allow="private emergency authority army vip passenger hov taxi bus coach delivery truck trailer motorcycle evehicle custom1 custom2" speed="22.22" length="5.47" shape="8328.76,7916.22 8327.41,7917.11 8326.44,7917.66 8325.44,7918.14 8323.97,7918.84"/>
    </edge>
    <edge id=":288985548_0" function="internal">
        <lane id=":288985548_0_0" index="0" allow="private emergency authority army vip passenger hov taxi bus coach delivery truck trailer motorcycle evehicle custom1 custom2" speed="22.22" length="0.10" shape="8037.55,8061.41 8037.55,8061.41"/>
    </edge>
    <edge id=":4205585295_0" function="internal">
        <lane id=":4205585295_0_0" index="0" allow="private emergency authority army vip passenger hov taxi bus coach delivery truck trailer motorcycle evehicle custom1 custom2" speed="22.22" length="0.24" shape="8562.32,7638.15 8562.27,7638.09 8562.24,7638.05 8562.20,7638.02 8562.15,7637.97"/>
    </edge>
    <edge id=":4205585302_0" function="internal">
        <lane id=":4205585302_0_0" index="0" allow="private emergency authority army vip passenger hov taxi bus coach delivery truck trailer motorcycle evehicle custom1 custom2" speed="22.22" length="0.35" shape="8704.56,7745.50 8704.80,7745.53"/>
        <lane id=":4205585302_0_1" index="1" allow="private emergency authority army vip passenger hov taxi bus coach delivery truck trailer motorcycle evehicle custom1 custom2" speed="22.22" length="0.35" shape="8704.16,7748.68 8704.50,7748.72"/>
        <lane id=":4205585302_0_2" index="2" allow="private emergency authority army vip passenger hov taxi bus coach delivery truck trailer motorcycle evehicle custom1 custom2" speed="22.22" length="0.35" shape="8703.75,7751.85 8704.20,7751.90"/>
    </edge>
    <edge id=":4205585304_0" function="internal">
        <lane id=":4205585304_0_0" index="0" allow="private emergency authority army vip passenger hov taxi bus coach delivery truck trailer motorcycle evehicle custom1 custom2" speed="22.22" length="0.36" shape="8558.27,7750.54 8558.42,7750.47 8558.52,7750.43 8558.62,7750.39 8558.77,7750.34"/>
        <lane id=":4205585304_0_1" index="1" allow="private emergency authority army vip passenger hov taxi bus coach delivery truck trailer motorcycle evehicle custom1 custom2" speed="22.22" length="0.36" shape="8559.64,7753.43 8559.69,7753.41 8559.72,7753.40 8559.76,7753.38 8559.81,7753.36"/>
    </edge>
    <edge id=":462263310_0" function="internal">
        <lane id=":462263310_0_0" index="0" allow="private emergency authority army vip passenger hov taxi bus coach delivery truck trailer motorcycle evehicle custom1 custom2" speed="22.22" length="0.20" shape="8255.08,7956.31 8254.90,7956.41"/>
    </edge>
    <edge id=":4784074832_0" function="internal">
        <lane id=":4784074832_0_0" index="0" allow="private emergency authority army vip passenger hov taxi bus coach delivery truck trailer motorcycle evehicle custom1 custom2" speed="22.22" length="0.30" shape="8436.81,7847.60 8436.55,7847.77"/>
        <lane id=":4784074832_0_1" index="1" allow="private emergency authority army vip passenger hov taxi bus coach delivery truck trailer motorcycle evehicle custom1 custom2" speed="22.22" length="0.30" shape="8435.02,7844.95 8434.78,7845.11"/>
    </edge>
    <edge id=":4784074833_0" function="internal">
        <lane id=":4784074833_0_0" index="0" allow="private emergency authority army vip passenger hov taxi bus coach delivery truck trailer motorcycle evehicle custom1 custom2" speed="22.22" length="0.29" shape="8426.02,7854.68 8425.79,7854.83"/>
        <lane id=":4784074833_0_1" index="1" allow="private emergency authority army vip passenger hov taxi bus coach delivery truck trailer motorcycle evehicle custom1 custom2" speed="22.22" length="0.29" shape="8424.29,7851.99 8424.03,7852.16"/>
    </edge>
    <edge id=":4784074834_0" function="internal">
        <lane id=":4784074834_0_0" index="0" allow="private emergency authority army vip passenger hov taxi bus coach delivery truck trailer motorcycle evehicle custom1 custom2" speed="22.22" length="0.30" shape="8424.48,7829.78 8424.73,7829.62"/>
        <lane id=":4784074834_0_1" index="1" allow="private emergency authority army vip passenger hov taxi bus coach delivery truck trailer motorcycle evehicle custom1 custom2" speed="22.22" length="0.30" shape="8426.22,7832.46 8426.48,7832.30"/>
    </edge>
    <edge id=":4784074835_0" function="internal">
        <lane id=":4784074835_0_0" index="0" allow="private emergency authority army vip passenger hov taxi bus coach delivery truck trailer motorcycle evehicle custom1 custom2" speed="22.22" length="0.30" shape="8413.66,7836.94 8413.90,7836.78"/>
        <lane id=":4784074835_0_1" index="1" allow="private emergency authority army vip passenger hov taxi bus coach delivery truck trailer motorcycle evehicle custom1 custom2" speed="22.22" length="0.30" shape="8415.43,7839.60 8415.69,7839.43"/>
    </edge>
    <edge id=":5625906747_0" function="internal">
        <lane id=":5625906747_0_0" index="0" allow="private emergency authority army vip passenger hov taxi bus coach delivery truck trailer motorcycle evehicle custom1 custom2" speed="22.22" length="0.27" shape="8361.66,7897.22 8361.46,7897.35"/>
        <lane id=":5625906747_0_1" index="1" allow="private emergency authority army vip passenger hov taxi bus coach delivery truck trailer motorcycle evehicle custom1 custom2" speed="22.22" length="0.27" shape="8359.89,7894.55 8359.63,7894.72"/>
    </edge>
    <edge id=":566170739_0" function="internal">
        <lane id=":566170739_0_0" index="0" allow="private emergency authority army vip passenger hov taxi bus coach delivery truck trailer motorcycle evehicle custom1 custom2" speed="22.22" length="0.29" shape="8448.57,7669.08 8448.81,7668.92"/>
    </edge>
    <edge id=":566170829_0" function="internal">
        <lane id=":566170829_0_0" index="0" allow="private emergency authority army vip passenger hov taxi bus coach delivery truck trailer motorcycle evehicle custom1 custom2" speed="22.22" length="24.89" shape="8592.08,7781.65 8587.38,7806.10"/>
    </edge>
    <edge id=":566170829_1" function="internal">
        <lane id=":566170829_1_0" index="0" allow="private emergency authority army vip passenger hov taxi bus coach delivery truck trailer motorcycle evehicle custom1 custom2" speed="22.22" length="24.89" shape="8588.69,7781.24 8587.38,7806.10"/>
    </edge>
    <edge id=":760283488_0" function="internal">
        <lane id=":760283488_0_0" index="0" allow="private emergency authority army vip passenger hov taxi bus coach delivery truck trailer motorcycle evehicle custom1 custom2" speed="22.22" length="0.30" shape="8585.67,7646.50 8585.83,7646.76"/>
    </edge>
    <edge id=":760283507_0" function="internal">
        <lane id=":760283507_0_0" index="0" allow="private emergency authority army vip passenger hov taxi bus coach delivery truck trailer motorcycle evehicle custom1 custom2" speed="22.22" length="0.22" shape="8664.30,7771.37 8664.24,7771.35 8664.20,7771.33 8664.16,7771.32 8664.09,7771.31"/>
    </edge>
    <edge id=":7947060879_0" function="internal">
        <lane id=":7947060879_0_0" index="0" allow="private emergency authority army vip passenger hov taxi bus coach delivery truck trailer motorcycle evehicle custom1 custom2" speed="39.44" length="0.10" shape="8744.23,9436.26 8744.23,9436.26"/>
        <lane id=":7947060879_0_1" index="1" allow="private emergency authority army vip passenger hov taxi bus coach delivery truck trailer motorcycle evehicle custom1 custom2" speed="39.44" length="0.10" shape="8747.15,9434.95 8747.15,9434.95"/>
        <lane id=":7947060879_0_2" index="2" allow="private emergency authority army vip passenger hov taxi bus coach delivery truck trailer motorcycle evehicle custom1 custom2" speed="39.44" length="0.10" shape="8750.07,9433.63 8750.07,9433.63"/>
        <lane id=":7947060879_0_3" index="3" allow="private emergency authority army vip passenger hov taxi bus coach delivery truck trailer motorcycle evehicle custom1 custom2" speed="39.44" length="0.10" shape="8752.99,9432.32 8752.99,9432.32"/>
    </edge>
    <edge id=":7947060880_0" function="internal">
        <lane id=":7947060880_0_0" index="0" allow="private emergency authority army vip passenger hov taxi bus coach delivery truck trailer motorcycle evehicle custom1 custom2" speed="39.44" length="0.10" shape="8764.75,9481.77 8764.75,9481.77"/>
        <lane id=":7947060880_0_1" index="1" allow="private emergency authority army vip passenger hov taxi bus coach delivery truck trailer motorcycle evehicle custom1 custom2" speed="39.44" length="0.10" shape="8767.67,9480.46 8767.67,9480.46"/>
        <lane id=":7947060880_0_2" index="2" allow="private emergency authority army vip passenger hov taxi bus coach delivery truck trailer motorcycle evehicle custom1 custom2" speed="39.44" length="0.10" shape="8770.59,9479.14 8770.59,9479.14"/>
        <lane id=":7947060880_0_3" index="3" allow="private emergency authority army vip passenger hov taxi bus coach delivery truck trailer motorcycle evehicle custom1 custom2" speed="39.44" length="0.10" shape="8773.51,9477.83 8773.51,9477.83"/>
    </edge>
    <edge id=":7947060881_0" function="internal">
        <lane id=":7947060881_0_0" index="0" allow="private emergency authority army vip passenger hov taxi bus coach delivery truck trailer motorcycle evehicle custom1 custom2" speed="39.44" length="0.10" shape="8762.94,9416.82 8762.94,9416.82"/>
        <lane id=":7947060881_0_1" index="1" allow="private emergency authority army vip passenger hov taxi bus coach delivery truck trailer motorcycle evehicle custom1 custom2" speed="39.44" length="0.10" shape="8765.86,9415.50 8765.86,9415.50"/>
        <lane id=":7947060881_0_2" index="2" allow="private emergency authority army vip passenger hov taxi bus coach delivery truck trailer motorcycle evehicle custom1 custom2" speed="39.44" length="0.10" shape="8768.78,9414.18 8768.78,9414.18"/>
    </edge>
    <edge id=":7947060882_0" function="internal">
        <lane id=":7947060882_0_0" index="0" allow="private emergency authority army vip passenger hov taxi bus coach delivery truck trailer motorcycle evehicle custom1 custom2" speed="39.44" length="0.10" shape="8783.47,9462.33 8783.47,9462.33"/>
        <lane id=":7947060882_0_1" index="1" allow="private emergency authority army vip passenger hov taxi bus coach delivery truck trailer motorcycle evehicle custom1 custom2" speed="39.44" length="0.10" shape="8786.39,9461.01 8786.39,9461.01"/>
        <lane id=":7947060882_0_2" index="2" allow="private emergency authority army vip passenger hov taxi bus coach delivery truck trailer motorcycle evehicle custom1 custom2" speed="39.44" length="0.10" shape="8789.31,9459.69 8789.31,9459.69"/>
    </edge>
    <edge id=":7947060883_0" function="internal">
        <lane id=":7947060883_0_0" index="0" allow="private emergency authority army vip passenger hov taxi bus coach delivery truck trailer motorcycle evehicle custom1 custom2" speed="39.44" length="0.30" shape="8804.56,9442.88 8804.68,9443.15"/>
        <lane id=":7947060883_0_1" index="1" allow="private emergency authority army vip passenger hov taxi bus coach delivery truck trailer motorcycle evehicle custom1 custom2" speed="39.44" length="0.30" shape="8801.64,9444.19 8801.76,9444.47"/>
        <lane id=":7947060883_0_2" index="2" allow="private emergency authority army vip passenger hov taxi bus coach delivery truck trailer motorcycle evehicle custom1 custom2" speed="39.44" length="0.30" shape="8798.72,9445.51 8798.84,9445.78"/>
    </edge>
    <edge id=":7947060884_0" function="internal">
        <lane id=":7947060884_0_0" index="0" allow="private emergency authority army vip passenger hov taxi bus coach delivery truck trailer motorcycle evehicle custom1 custom2" speed="39.44" length="0.10" shape="8784.12,9397.51 8784.12,9397.51"/>
        <lane id=":7947060884_0_1" index="1" allow="private emergency authority army vip passenger hov taxi bus coach delivery truck trailer motorcycle evehicle custom1 custom2" speed="39.44" length="0.10" shape="8781.20,9398.82 8781.20,9398.82"/>
        <lane id=":7947060884_0_2" index="2" allow="private emergency authority army vip passenger hov taxi bus coach delivery truck trailer motorcycle evehicle custom1 custom2" speed="39.44" length="0.10" shape="8778.28,9400.13 8778.28,9400.13"/>
    </edge>
    <edge id=":7947066785_0" function="internal">
        <lane id=":7947066785_0_0" index="0" allow="private emergency authority army vip passenger hov taxi bus coach delivery truck trailer motorcycle evehicle custom1 custom2" speed="39.44" length="0.30" shape="8822.41,9424.37 8822.53,9424.65"/>