<flows>
        <interval begin="0" end="3599">
                <flow arrivalLane="random" departLane="random" from="225182646" to="26378776.12" number="192" id="225182646to26378776.12"/>
        </interval>
        <interval begin="0" end="3599">
                <flow arrivalLane="random" departLane="random" from="225182646" to="38913001#1" number="180" id="225182646to38913001#1"/>
        </interval>
        <interval begin="0" end="3599">
                <flow arrivalLane="random" departLane="random" from="225182646" to="38913007#1" number="39" id="225182646to38913007#1"/>
        </interval>
        <interval begin="0" end="3599">
                <flow arrivalLane="random" departLane="random" from="225182646" to="420601185" number="159" id="225182646to420601185"/>
        </interval>
        <interval begin="0" end="3599">
                <flow arrivalLane="random" departLane="random" from="225182646" to="506406473.32" number="150" id="225182646to506406473.32"/>
        </interval>
        <interval begin="0" end="3599">
                <flow arrivalLane="random" departLane="random" from="225182646" to="851965847" number="178" id="225182646to851965847"/>
        </interval>
        <interval begin="0" end="3599">
                <flow arrivalLane="random" departLane="random" from="225182646" to="851965849" number="269" id="225182646to851965849"/>
        </interval>
        <interval begin="0" end="3599">
                <flow arrivalLane="random" departLane="random" from="225182649" to="26378776.12" number="216" id="225182649to26378776.12"/>
        </interval>
        <interval begin="0" end="3599">
                <flow arrivalLane="random" departLane="random" from="225182649" to="38913001#1" number="88" id="225182649to38913001#1"/>
        </interval>
        <interval begin="0" end="3599">
                <flow arrivalLane="random" departLane="random" from="225182649" to="38913007#1" number="85" id="225182649to38913007#1"/>
        </interval>
        <interval begin="0" end="3599">
                <flow arrivalLane="random" departLane="random" from="225182649" to="420601185" number="361" id="225182649to420601185"/>
        </interval>
        <interval begin="0" end="3599">
                <flow arrivalLane="random" departLane="random" from="225182649" to="506406473.32" number="347" id="225182649to506406473.32"/>
        </interval>
        <interval begin="0" end="3599">
                <flow arrivalLane="random" departLane="random" from="225182649" to="851965847" number="20" id="225182649to851965847"/>
        </interval>
        <interval begin="0" end="3599">
                <flow arrivalLane="random" departLane="random" from="225182649" to="851965849" number="182" id="225182649to851965849"/>
        </interval>
        <interval begin="0" end="3599">
                <flow arrivalLane="random" departLane="random" from="42681424" to="26378776.12" number="114" id="42681424to26378776.12"/>
        </interval>
        <interval begin="0" end="3599">
                <flow arrivalLane="random" departLane="random" from="42681424" to="38913001#1" number="169" id="42681424to38913001#1"/>
        </interval>
        <interval begin="0" end="3599">
                <flow arrivalLane="random" departLane="random" from="42681424" to="38913007#1" number="183" id="42681424to38913007#1"/>
        </interval>
        <interval begin="0" end="3599">
                <flow arrivalLane="random" departLane="random" from="42681424" to="420601185" number="316" id="42681424to420601185"/>
        </interval>
        <interval begin="0" end="3599">
                <flow arrivalLane="random" departLane="random" from="42681424" to="506406473.32" number="278" id="42681424to506406473.32"/>
        </interval>
        <interval begin="0" end="3599">
                <flow arrivalLane="random" departLane="random" from="42681424" to="851965847" number="214" id="42681424to851965847"/>
        </interval>
        <interval begin="0" end="3599">
                <flow arrivalLane="random" departLane="random" from="42681424" to="851965849" number="231" id="42681424to851965849"/>
        </interval>
        <interval begin="0" end="3599">
                <flow arrivalLane="random" departLane="random" from="42681430" to="26378776.12" number="104" id="42681430to26378776.12"/>
        </interval>
        <interval begin="0" end="3599">
                <flow arrivalLane="random" departLane="random" from="42681430" to="38913001#1" number="28" id="42681430to38913001#1"/>
        </interval>
        <interval begin="0" end="3599">
                <flow arrivalLane="random" departLane="random" from="42681430" to="38913007#1" number="20" id="42681430to38913007#1"/>
        </interval>
        <interval begin="0" end="3599">
                <flow arrivalLane="random" departLane="random" from="42681430" to="420601185" number="224" id="42681430to420601185"/>
        </interval>
        <interval begin="0" end="3599">
                <flow arrivalLane="random" departLane="random" from="42681430" to="506406473.32" number="211" id="42681430to506406473.32"/>
        </interval>
        <interval begin="0" end="3599">
                <flow arrivalLane="random" departLane="random" from="42681430" to="851965847" number="124" id="42681430to851965847"/>
        </interval>
        <interval begin="0" end="3599">
                <flow arrivalLane="random" departLane="random" from="42681430" to="851965849" number="194" id="42681430to851965849"/>
        </interval>
        <interval begin="0" end="3599">
                <flow arrivalLane="random" departLane="random" from="44580847" to="44580898" number="20" id="44580847to44580898"/>
        </interval>
        <interval begin="0" end="3599">
                <flow arrivalLane="random" departLane="random" from="60731684" to="44580898" number="20" id="60731684to44580898"/>
        </interval>
</flows>
