<flows>
        <interval begin="0" end="3599">
                <flow arrivalLane="random" departLane="random" from="225182646" to="38913001#1.83" number="7691" id="225182646to38913001#1.83"/>
        </interval>
        <interval begin="0" end="3599">
                <flow arrivalLane="random" departLane="random" from="225182646" to="89932034#0" number="7373" id="225182646to89932034#0"/>
        </interval>
        <interval begin="0" end="3599">
                <flow arrivalLane="random" departLane="random" from="38912992#1" to="38913001#1.83" number="2184" id="38912992#1to38913001#1.83"/>
        </interval>
</flows>
